Circuit: * C:\Users\Public\Documents\Altium\Projects\Udemy_Donanim\Kaynak Dosyalar\Simulation\AC-DC.asc

.OP point found by inspection.

Date: Sat Jul 02 23:51:15 2022
Total elapsed time: 0.140 seconds.

tnom = 27
temp = 27
method = modified trap
totiter = 2935
traniter = 2935
tranpoints = 1252
accept = 1172
rejected = 80
matrix size = 11
fillins = 4
solver = Alternate
Matrix Compiler1: 970 bytes object code size  0.3/0.2/[0.2]
Matrix Compiler2: 997 bytes object code size  0.2/0.2/[0.1]

